<routes xmlns:xsi="http://www.w3.org/2001/XMLSchema-instance" xsi:noNamespaceSchemaLocation="http://sumo.dlr.de/xsd/routes_file.xsd">
    <vType id="SUMO_DEFAULT_TYPE" accel="0.8" decel="4.5" sigma="0" length="5" minGap="2" maxSpeed="19.44"/>
    <route id="always_right" edges="1fi 1si 4o 4fi 4si 2o 2fi 2si 3o 3fi 3si 1o 1fi"/>
    <route id="always_left" edges="3fi 3si 2o 2fi 2si 4o 4fi 4si 1o 1fi 1si 3o 3fi"/>
    <route id="horizontal" edges="2fi 2si 1o 1fi 1si 2o 2fi"/>
    <route id="vertical" edges="3fi 3si 4o 4fi 4si 3o 3fi"/>

    
    <vehicle id="left_0" type="SUMO_DEFAULT_TYPE" route="vertical" depart="0" />
    <vehicle id="left_1" type="SUMO_DEFAULT_TYPE" route="vertical" depart="2" />
    <vehicle id="right_2" type="SUMO_DEFAULT_TYPE" route="horizontal" depart="3" />
    <vehicle id="down_3" type="SUMO_DEFAULT_TYPE" route="always_right" depart="4" color="1,0,0"/>
    <vehicle id="left_4" type="SUMO_DEFAULT_TYPE" route="vertical" depart="10" />
    <vehicle id="right_5" type="SUMO_DEFAULT_TYPE" route="horizontal" depart="11" />
    <vehicle id="down_6" type="SUMO_DEFAULT_TYPE" route="always_right" depart="16" color="1,0,0"/>
    <vehicle id="right_7" type="SUMO_DEFAULT_TYPE" route="horizontal" depart="22" />
    <vehicle id="left_8" type="SUMO_DEFAULT_TYPE" route="vertical" depart="22" />
    <vehicle id="right_9" type="SUMO_DEFAULT_TYPE" route="horizontal" depart="25" />
    <vehicle id="right_10" type="SUMO_DEFAULT_TYPE" route="horizontal" depart="31" />
    <vehicle id="down_11" type="SUMO_DEFAULT_TYPE" route="always_left" depart="31" color="0,0,1"/>
    <vehicle id="right_12" type="SUMO_DEFAULT_TYPE" route="horizontal" depart="34" />
    <vehicle id="right_13" type="SUMO_DEFAULT_TYPE" route="horizontal" depart="40" />
    <vehicle id="left_14" type="SUMO_DEFAULT_TYPE" route="vertical" depart="41" />
    <vehicle id="right_15" type="SUMO_DEFAULT_TYPE" route="horizontal" depart="44" />
    <vehicle id="left_16" type="SUMO_DEFAULT_TYPE" route="vertical" depart="49" />
    <vehicle id="right_17" type="SUMO_DEFAULT_TYPE" route="horizontal" depart="56" />
    <vehicle id="right_18" type="SUMO_DEFAULT_TYPE" route="horizontal" depart="63" />
    <vehicle id="right_19" type="SUMO_DEFAULT_TYPE" route="horizontal" depart="64" />
    <vehicle id="left_20" type="SUMO_DEFAULT_TYPE" route="vertical" depart="67" />
    <vehicle id="down_21" type="SUMO_DEFAULT_TYPE" route="always_left" depart="72" color="0,0,1"/>
    <vehicle id="left_22" type="SUMO_DEFAULT_TYPE" route="vertical" depart="74" />
    <vehicle id="right_23" type="SUMO_DEFAULT_TYPE" route="horizontal" depart="81" />
    <vehicle id="down_24" type="SUMO_DEFAULT_TYPE" route="always_left" depart="85" color="0,0,1"/>
    <vehicle id="right_25" type="SUMO_DEFAULT_TYPE" route="horizontal" depart="92" />
    <vehicle id="down_26" type="SUMO_DEFAULT_TYPE" route="always_left" depart="98" color="0,0,1"/>
    <vehicle id="down_27" type="SUMO_DEFAULT_TYPE" route="always_right" depart="103" color="1,0,0"/>
    <vehicle id="down_28" type="SUMO_DEFAULT_TYPE" route="always_right" depart="106" color="1,0,0"/>
    <vehicle id="right_29" type="SUMO_DEFAULT_TYPE" route="horizontal" depart="115" />
    <vehicle id="left_30" type="SUMO_DEFAULT_TYPE" route="vertical" depart="117" />
    <vehicle id="left_31" type="SUMO_DEFAULT_TYPE" route="vertical" depart="120" />
    <vehicle id="left_32" type="SUMO_DEFAULT_TYPE" route="vertical" depart="123" />
    <vehicle id="left_33" type="SUMO_DEFAULT_TYPE" route="vertical" depart="125" />
    <vehicle id="right_34" type="SUMO_DEFAULT_TYPE" route="horizontal" depart="126" />
    <vehicle id="right_35" type="SUMO_DEFAULT_TYPE" route="horizontal" depart="127" />
    <vehicle id="left_36" type="SUMO_DEFAULT_TYPE" route="vertical" depart="129" />
    <vehicle id="down_37" type="SUMO_DEFAULT_TYPE" route="always_left" depart="129" color="0,0,1"/>
    <vehicle id="right_38" type="SUMO_DEFAULT_TYPE" route="horizontal" depart="132" />
    <vehicle id="down_39" type="SUMO_DEFAULT_TYPE" route="always_right" depart="135" color="1,0,0"/>
    <vehicle id="left_40" type="SUMO_DEFAULT_TYPE" route="vertical" depart="137" />
    <vehicle id="left_41" type="SUMO_DEFAULT_TYPE" route="vertical" depart="147" />
    <vehicle id="down_42" type="SUMO_DEFAULT_TYPE" route="always_left" depart="149" color="0,0,1"/>
    <vehicle id="right_43" type="SUMO_DEFAULT_TYPE" route="horizontal" depart="150" />
    <vehicle id="right_44" type="SUMO_DEFAULT_TYPE" route="horizontal" depart="152" />
    <vehicle id="left_45" type="SUMO_DEFAULT_TYPE" route="vertical" depart="159" />
    <vehicle id="right_46" type="SUMO_DEFAULT_TYPE" route="horizontal" depart="164" />
    <vehicle id="right_47" type="SUMO_DEFAULT_TYPE" route="horizontal" depart="171" />
    <vehicle id="right_48" type="SUMO_DEFAULT_TYPE" route="horizontal" depart="179" />
    <vehicle id="right_49" type="SUMO_DEFAULT_TYPE" route="horizontal" depart="180" />
    <vehicle id="right_50" type="SUMO_DEFAULT_TYPE" route="horizontal" depart="182" />
    <vehicle id="left_51" type="SUMO_DEFAULT_TYPE" route="vertical" depart="184" />
    <vehicle id="left_52" type="SUMO_DEFAULT_TYPE" route="vertical" depart="204" />
    <vehicle id="down_53" type="SUMO_DEFAULT_TYPE" route="always_left" depart="206" color="0,0,1"/>
    <vehicle id="down_54" type="SUMO_DEFAULT_TYPE" route="always_right" depart="212" color="1,0,0"/>
    <vehicle id="right_55" type="SUMO_DEFAULT_TYPE" route="horizontal" depart="213" />
    <vehicle id="right_56" type="SUMO_DEFAULT_TYPE" route="horizontal" depart="216" />
    <vehicle id="left_57" type="SUMO_DEFAULT_TYPE" route="vertical" depart="218" />
    <vehicle id="down_58" type="SUMO_DEFAULT_TYPE" route="always_left" depart="220" color="0,0,1"/>
    <vehicle id="right_59" type="SUMO_DEFAULT_TYPE" route="horizontal" depart="227" />
    <vehicle id="left_60" type="SUMO_DEFAULT_TYPE" route="vertical" depart="232" />
    <vehicle id="right_61" type="SUMO_DEFAULT_TYPE" route="horizontal" depart="239" />
    <vehicle id="down_62" type="SUMO_DEFAULT_TYPE" route="always_left" depart="241" color="0,0,1"/>
    <vehicle id="right_63" type="SUMO_DEFAULT_TYPE" route="horizontal" depart="245" />
    <vehicle id="down_64" type="SUMO_DEFAULT_TYPE" route="always_right" depart="248" color="1,0,0"/>
    <vehicle id="right_65" type="SUMO_DEFAULT_TYPE" route="horizontal" depart="250" />
    <vehicle id="left_66" type="SUMO_DEFAULT_TYPE" route="vertical" depart="253" />
    <vehicle id="down_67" type="SUMO_DEFAULT_TYPE" route="always_left" depart="256" color="0,0,1"/>
    <vehicle id="left_68" type="SUMO_DEFAULT_TYPE" route="vertical" depart="258" />
    <vehicle id="down_69" type="SUMO_DEFAULT_TYPE" route="always_left" depart="258" color="0,0,1"/>
    <vehicle id="left_70" type="SUMO_DEFAULT_TYPE" route="vertical" depart="262" />
    <vehicle id="left_71" type="SUMO_DEFAULT_TYPE" route="vertical" depart="265" />
    <vehicle id="right_72" type="SUMO_DEFAULT_TYPE" route="horizontal" depart="266" />
    <vehicle id="left_73" type="SUMO_DEFAULT_TYPE" route="vertical" depart="268" />
    <vehicle id="left_74" type="SUMO_DEFAULT_TYPE" route="vertical" depart="271" />
    <vehicle id="left_75" type="SUMO_DEFAULT_TYPE" route="vertical" depart="273" />
    <vehicle id="left_76" type="SUMO_DEFAULT_TYPE" route="vertical" depart="281" />
    <vehicle id="left_77" type="SUMO_DEFAULT_TYPE" route="vertical" depart="283" />
    <vehicle id="down_78" type="SUMO_DEFAULT_TYPE" route="always_right" depart="284" color="1,0,0"/>
    <vehicle id="right_79" type="SUMO_DEFAULT_TYPE" route="horizontal" depart="287" />
    <vehicle id="left_80" type="SUMO_DEFAULT_TYPE" route="vertical" depart="287" />
    <vehicle id="left_81" type="SUMO_DEFAULT_TYPE" route="vertical" depart="291" />
    <vehicle id="right_82" type="SUMO_DEFAULT_TYPE" route="horizontal" depart="292" />
    <vehicle id="down_83" type="SUMO_DEFAULT_TYPE" route="always_left" depart="293" color="0,0,1"/>
    <vehicle id="right_84" type="SUMO_DEFAULT_TYPE" route="horizontal" depart="296" />
    <vehicle id="left_85" type="SUMO_DEFAULT_TYPE" route="vertical" depart="296" />
    <vehicle id="left_86" type="SUMO_DEFAULT_TYPE" route="vertical" depart="298" />
    <vehicle id="right_87" type="SUMO_DEFAULT_TYPE" route="horizontal" depart="309" />
    <vehicle id="right_88" type="SUMO_DEFAULT_TYPE" route="horizontal" depart="310" />
    <vehicle id="right_89" type="SUMO_DEFAULT_TYPE" route="horizontal" depart="311" />
    <vehicle id="left_90" type="SUMO_DEFAULT_TYPE" route="vertical" depart="315" />
    <vehicle id="right_91" type="SUMO_DEFAULT_TYPE" route="horizontal" depart="320" />
    <vehicle id="left_92" type="SUMO_DEFAULT_TYPE" route="vertical" depart="320" />
    <vehicle id="right_93" type="SUMO_DEFAULT_TYPE" route="horizontal" depart="329" />
    <vehicle id="down_94" type="SUMO_DEFAULT_TYPE" route="always_left" depart="330" color="0,0,1"/>
    <vehicle id="left_95" type="SUMO_DEFAULT_TYPE" route="vertical" depart="343" />
    <vehicle id="down_96" type="SUMO_DEFAULT_TYPE" route="always_right" depart="344" color="1,0,0"/>
    <vehicle id="down_97" type="SUMO_DEFAULT_TYPE" route="always_right" depart="347" color="1,0,0"/>
    <vehicle id="right_98" type="SUMO_DEFAULT_TYPE" route="horizontal" depart="348" />
    <vehicle id="left_99" type="SUMO_DEFAULT_TYPE" route="vertical" depart="350" />
    <vehicle id="right_100" type="SUMO_DEFAULT_TYPE" route="horizontal" depart="352" />
    <vehicle id="left_101" type="SUMO_DEFAULT_TYPE" route="vertical" depart="354" />
    <vehicle id="left_102" type="SUMO_DEFAULT_TYPE" route="vertical" depart="357" />
    <vehicle id="left_103" type="SUMO_DEFAULT_TYPE" route="vertical" depart="359" />
    <vehicle id="down_104" type="SUMO_DEFAULT_TYPE" route="always_left" depart="362" color="0,0,1"/>
    <vehicle id="right_105" type="SUMO_DEFAULT_TYPE" route="horizontal" depart="363" />
    <vehicle id="left_106" type="SUMO_DEFAULT_TYPE" route="vertical" depart="369" />
    <vehicle id="left_107" type="SUMO_DEFAULT_TYPE" route="vertical" depart="372" />
    <vehicle id="right_108" type="SUMO_DEFAULT_TYPE" route="horizontal" depart="374" />
    <vehicle id="left_109" type="SUMO_DEFAULT_TYPE" route="vertical" depart="376" />
    <vehicle id="right_110" type="SUMO_DEFAULT_TYPE" route="horizontal" depart="389" />
    <vehicle id="left_111" type="SUMO_DEFAULT_TYPE" route="vertical" depart="392" />
    <vehicle id="right_112" type="SUMO_DEFAULT_TYPE" route="horizontal" depart="402" />
    <vehicle id="left_113" type="SUMO_DEFAULT_TYPE" route="vertical" depart="402" />
    <vehicle id="right_114" type="SUMO_DEFAULT_TYPE" route="horizontal" depart="406" />
    <vehicle id="left_115" type="SUMO_DEFAULT_TYPE" route="vertical" depart="406" />
    <vehicle id="left_116" type="SUMO_DEFAULT_TYPE" route="vertical" depart="414" />
    <vehicle id="down_117" type="SUMO_DEFAULT_TYPE" route="always_right" depart="423" color="1,0,0"/>
    <vehicle id="left_118" type="SUMO_DEFAULT_TYPE" route="vertical" depart="430" />
    <vehicle id="down_119" type="SUMO_DEFAULT_TYPE" route="always_right" depart="433" color="1,0,0"/>
    <vehicle id="down_120" type="SUMO_DEFAULT_TYPE" route="always_left" depart="434" color="0,0,1"/>
    <vehicle id="down_121" type="SUMO_DEFAULT_TYPE" route="always_right" depart="451" color="1,0,0"/>
    <vehicle id="right_122" type="SUMO_DEFAULT_TYPE" route="horizontal" depart="459" />
    <vehicle id="down_123" type="SUMO_DEFAULT_TYPE" route="always_left" depart="468" color="0,0,1"/>
    <vehicle id="left_124" type="SUMO_DEFAULT_TYPE" route="vertical" depart="469" />
    <vehicle id="right_125" type="SUMO_DEFAULT_TYPE" route="horizontal" depart="477" />
    <vehicle id="right_126" type="SUMO_DEFAULT_TYPE" route="horizontal" depart="481" />
    <vehicle id="right_127" type="SUMO_DEFAULT_TYPE" route="horizontal" depart="483" />
    <vehicle id="left_128" type="SUMO_DEFAULT_TYPE" route="vertical" depart="484" />
    <vehicle id="down_129" type="SUMO_DEFAULT_TYPE" route="always_right" depart="484" color="1,0,0"/>
    <vehicle id="left_130" type="SUMO_DEFAULT_TYPE" route="vertical" depart="490" />
    <vehicle id="down_131" type="SUMO_DEFAULT_TYPE" route="always_left" depart="490" color="0,0,1"/>
    <vehicle id="down_132" type="SUMO_DEFAULT_TYPE" route="always_left" depart="494" color="0,0,1"/>
    <vehicle id="left_133" type="SUMO_DEFAULT_TYPE" route="vertical" depart="495" />
    <vehicle id="right_134" type="SUMO_DEFAULT_TYPE" route="horizontal" depart="496" />
    <vehicle id="right_135" type="SUMO_DEFAULT_TYPE" route="horizontal" depart="501" />
    <vehicle id="down_136" type="SUMO_DEFAULT_TYPE" route="always_left" depart="512" color="0,0,1"/>
    <vehicle id="right_137" type="SUMO_DEFAULT_TYPE" route="horizontal" depart="517" />
    <vehicle id="down_138" type="SUMO_DEFAULT_TYPE" route="always_right" depart="525" color="1,0,0"/>
    <vehicle id="right_139" type="SUMO_DEFAULT_TYPE" route="horizontal" depart="528" />
    <vehicle id="right_140" type="SUMO_DEFAULT_TYPE" route="horizontal" depart="530" />
    <vehicle id="down_141" type="SUMO_DEFAULT_TYPE" route="always_left" depart="530" color="0,0,1"/>
    <vehicle id="down_142" type="SUMO_DEFAULT_TYPE" route="always_left" depart="531" color="0,0,1"/>
    <vehicle id="right_143" type="SUMO_DEFAULT_TYPE" route="horizontal" depart="533" />
    <vehicle id="left_144" type="SUMO_DEFAULT_TYPE" route="vertical" depart="537" />
    <vehicle id="right_145" type="SUMO_DEFAULT_TYPE" route="horizontal" depart="538" />
    <vehicle id="left_146" type="SUMO_DEFAULT_TYPE" route="vertical" depart="538" />
    <vehicle id="right_147" type="SUMO_DEFAULT_TYPE" route="horizontal" depart="540" />
    <vehicle id="down_148" type="SUMO_DEFAULT_TYPE" route="always_left" depart="540" color="0,0,1"/>
    <vehicle id="down_149" type="SUMO_DEFAULT_TYPE" route="always_right" depart="541" color="1,0,0"/>
    <vehicle id="right_150" type="SUMO_DEFAULT_TYPE" route="horizontal" depart="542" />
    <vehicle id="right_151" type="SUMO_DEFAULT_TYPE" route="horizontal" depart="543" />
    <vehicle id="right_152" type="SUMO_DEFAULT_TYPE" route="horizontal" depart="545" />
    <vehicle id="left_153" type="SUMO_DEFAULT_TYPE" route="vertical" depart="548" />
    <vehicle id="left_154" type="SUMO_DEFAULT_TYPE" route="vertical" depart="550" />
    <vehicle id="left_155" type="SUMO_DEFAULT_TYPE" route="vertical" depart="555" />
    <vehicle id="down_156" type="SUMO_DEFAULT_TYPE" route="always_left" depart="557" color="0,0,1"/>
    <vehicle id="right_157" type="SUMO_DEFAULT_TYPE" route="horizontal" depart="558" />
    <vehicle id="right_158" type="SUMO_DEFAULT_TYPE" route="horizontal" depart="562" />
    <vehicle id="right_159" type="SUMO_DEFAULT_TYPE" route="horizontal" depart="563" />
    <vehicle id="left_160" type="SUMO_DEFAULT_TYPE" route="vertical" depart="576" />
    <vehicle id="down_161" type="SUMO_DEFAULT_TYPE" route="always_right" depart="580" color="1,0,0"/>
    <vehicle id="down_162" type="SUMO_DEFAULT_TYPE" route="always_left" depart="582" color="0,0,1"/>
    <vehicle id="down_163" type="SUMO_DEFAULT_TYPE" route="always_left" depart="585" color="0,0,1"/>
    <vehicle id="down_164" type="SUMO_DEFAULT_TYPE" route="always_right" depart="593" color="1,0,0"/>
    <vehicle id="right_165" type="SUMO_DEFAULT_TYPE" route="horizontal" depart="596" />
    <vehicle id="right_166" type="SUMO_DEFAULT_TYPE" route="horizontal" depart="601" />
    <vehicle id="right_167" type="SUMO_DEFAULT_TYPE" route="horizontal" depart="606" />
    <vehicle id="down_168" type="SUMO_DEFAULT_TYPE" route="always_left" depart="606" color="0,0,1"/>
    <vehicle id="right_169" type="SUMO_DEFAULT_TYPE" route="horizontal" depart="609" />
    <vehicle id="left_170" type="SUMO_DEFAULT_TYPE" route="vertical" depart="609" />
    <vehicle id="left_171" type="SUMO_DEFAULT_TYPE" route="vertical" depart="613" />
    <vehicle id="left_172" type="SUMO_DEFAULT_TYPE" route="vertical" depart="622" />
    <vehicle id="left_173" type="SUMO_DEFAULT_TYPE" route="vertical" depart="627" />
    <vehicle id="right_174" type="SUMO_DEFAULT_TYPE" route="horizontal" depart="629" />
    <vehicle id="right_175" type="SUMO_DEFAULT_TYPE" route="horizontal" depart="634" />
    <vehicle id="left_176" type="SUMO_DEFAULT_TYPE" route="vertical" depart="634" />
    <vehicle id="down_177" type="SUMO_DEFAULT_TYPE" route="always_right" depart="635" color="1,0,0"/>
    <vehicle id="down_178" type="SUMO_DEFAULT_TYPE" route="always_right" depart="640" color="1,0,0"/>
    <vehicle id="right_179" type="SUMO_DEFAULT_TYPE" route="horizontal" depart="642" />
    <vehicle id="down_180" type="SUMO_DEFAULT_TYPE" route="always_right" depart="646" color="1,0,0"/>
    <vehicle id="right_181" type="SUMO_DEFAULT_TYPE" route="horizontal" depart="649" />
    <vehicle id="left_182" type="SUMO_DEFAULT_TYPE" route="vertical" depart="651" />
    <vehicle id="left_183" type="SUMO_DEFAULT_TYPE" route="vertical" depart="659" />
    <vehicle id="right_184" type="SUMO_DEFAULT_TYPE" route="horizontal" depart="660" />
    <vehicle id="left_185" type="SUMO_DEFAULT_TYPE" route="vertical" depart="660" />
    <vehicle id="right_186" type="SUMO_DEFAULT_TYPE" route="horizontal" depart="662" />
    <vehicle id="left_187" type="SUMO_DEFAULT_TYPE" route="vertical" depart="665" />
    <vehicle id="left_188" type="SUMO_DEFAULT_TYPE" route="vertical" depart="666" />
    <vehicle id="down_189" type="SUMO_DEFAULT_TYPE" route="always_right" depart="671" color="1,0,0"/>
    <vehicle id="left_190" type="SUMO_DEFAULT_TYPE" route="vertical" depart="673" />
    <vehicle id="left_191" type="SUMO_DEFAULT_TYPE" route="vertical" depart="676" />
    <vehicle id="left_192" type="SUMO_DEFAULT_TYPE" route="vertical" depart="680" />
    <vehicle id="left_193" type="SUMO_DEFAULT_TYPE" route="vertical" depart="682" />
    <vehicle id="down_194" type="SUMO_DEFAULT_TYPE" route="always_right" depart="683" color="1,0,0"/>
    <vehicle id="right_195" type="SUMO_DEFAULT_TYPE" route="horizontal" depart="687" />
    <vehicle id="down_196" type="SUMO_DEFAULT_TYPE" route="always_right" depart="688" color="1,0,0"/>
    <vehicle id="left_197" type="SUMO_DEFAULT_TYPE" route="vertical" depart="693" />
    <vehicle id="left_198" type="SUMO_DEFAULT_TYPE" route="vertical" depart="694" />
    <vehicle id="left_199" type="SUMO_DEFAULT_TYPE" route="vertical" depart="697" />
    <vehicle id="down_200" type="SUMO_DEFAULT_TYPE" route="always_right" depart="701" color="1,0,0"/>
    <vehicle id="left_201" type="SUMO_DEFAULT_TYPE" route="vertical" depart="704" />
    <vehicle id="left_202" type="SUMO_DEFAULT_TYPE" route="vertical" depart="706" />
    <vehicle id="right_203" type="SUMO_DEFAULT_TYPE" route="horizontal" depart="709" />
    <vehicle id="left_204" type="SUMO_DEFAULT_TYPE" route="vertical" depart="709" />
    <vehicle id="right_205" type="SUMO_DEFAULT_TYPE" route="horizontal" depart="711" />
    <vehicle id="down_206" type="SUMO_DEFAULT_TYPE" route="always_left" depart="712" color="0,0,1"/>
    <vehicle id="left_207" type="SUMO_DEFAULT_TYPE" route="vertical" depart="714" />
    <vehicle id="left_208" type="SUMO_DEFAULT_TYPE" route="vertical" depart="721" />
    <vehicle id="right_209" type="SUMO_DEFAULT_TYPE" route="horizontal" depart="724" />
    <vehicle id="left_210" type="SUMO_DEFAULT_TYPE" route="vertical" depart="727" />
    <vehicle id="right_211" type="SUMO_DEFAULT_TYPE" route="horizontal" depart="730" />
    <vehicle id="right_212" type="SUMO_DEFAULT_TYPE" route="horizontal" depart="731" />
    <vehicle id="right_213" type="SUMO_DEFAULT_TYPE" route="horizontal" depart="733" />
    <vehicle id="down_214" type="SUMO_DEFAULT_TYPE" route="always_right" depart="741" color="1,0,0"/>
    <vehicle id="right_215" type="SUMO_DEFAULT_TYPE" route="horizontal" depart="745" />
    <vehicle id="down_216" type="SUMO_DEFAULT_TYPE" route="always_left" depart="747" color="0,0,1"/>
    <vehicle id="right_217" type="SUMO_DEFAULT_TYPE" route="horizontal" depart="751" />
    <vehicle id="left_218" type="SUMO_DEFAULT_TYPE" route="vertical" depart="752" />
    <vehicle id="down_219" type="SUMO_DEFAULT_TYPE" route="always_right" depart="754" color="1,0,0"/>
    <vehicle id="left_220" type="SUMO_DEFAULT_TYPE" route="vertical" depart="758" />
    <vehicle id="down_221" type="SUMO_DEFAULT_TYPE" route="always_right" depart="760" color="1,0,0"/>
    <vehicle id="right_222" type="SUMO_DEFAULT_TYPE" route="horizontal" depart="763" />
    <vehicle id="left_223" type="SUMO_DEFAULT_TYPE" route="vertical" depart="766" />
    <vehicle id="left_224" type="SUMO_DEFAULT_TYPE" route="vertical" depart="782" />
    <vehicle id="down_225" type="SUMO_DEFAULT_TYPE" route="always_left" depart="783" color="0,0,1"/>
    <vehicle id="left_226" type="SUMO_DEFAULT_TYPE" route="vertical" depart="785" />
    <vehicle id="down_227" type="SUMO_DEFAULT_TYPE" route="always_left" depart="792" color="0,0,1"/>
    <vehicle id="down_228" type="SUMO_DEFAULT_TYPE" route="always_right" depart="795" color="1,0,0"/>
    <vehicle id="right_229" type="SUMO_DEFAULT_TYPE" route="horizontal" depart="801" />
    <vehicle id="down_230" type="SUMO_DEFAULT_TYPE" route="always_right" depart="801" color="1,0,0"/>
    <vehicle id="down_231" type="SUMO_DEFAULT_TYPE" route="always_right" depart="802" color="1,0,0"/>
    <vehicle id="right_232" type="SUMO_DEFAULT_TYPE" route="horizontal" depart="814" />
    <vehicle id="right_233" type="SUMO_DEFAULT_TYPE" route="horizontal" depart="823" />
    <vehicle id="left_234" type="SUMO_DEFAULT_TYPE" route="vertical" depart="828" />
    <vehicle id="right_235" type="SUMO_DEFAULT_TYPE" route="horizontal" depart="830" />
    <vehicle id="down_236" type="SUMO_DEFAULT_TYPE" route="always_left" depart="831" color="0,0,1"/>
    <vehicle id="left_237" type="SUMO_DEFAULT_TYPE" route="vertical" depart="832" />
    <vehicle id="left_238" type="SUMO_DEFAULT_TYPE" route="vertical" depart="841" />
    <vehicle id="left_239" type="SUMO_DEFAULT_TYPE" route="vertical" depart="842" />
    <vehicle id="left_240" type="SUMO_DEFAULT_TYPE" route="vertical" depart="843" />
    <vehicle id="left_241" type="SUMO_DEFAULT_TYPE" route="vertical" depart="850" />
    <vehicle id="down_242" type="SUMO_DEFAULT_TYPE" route="always_left" depart="851" color="0,0,1"/>
    <vehicle id="right_243" type="SUMO_DEFAULT_TYPE" route="horizontal" depart="853" />
    <vehicle id="left_244" type="SUMO_DEFAULT_TYPE" route="vertical" depart="855" />
    <vehicle id="down_245" type="SUMO_DEFAULT_TYPE" route="always_right" depart="855" color="1,0,0"/>
    <vehicle id="right_246" type="SUMO_DEFAULT_TYPE" route="horizontal" depart="857" />
    <vehicle id="down_247" type="SUMO_DEFAULT_TYPE" route="always_left" depart="857" color="0,0,1"/>
    <vehicle id="left_248" type="SUMO_DEFAULT_TYPE" route="vertical" depart="865" />
    <vehicle id="left_249" type="SUMO_DEFAULT_TYPE" route="vertical" depart="867" />
    <vehicle id="left_250" type="SUMO_DEFAULT_TYPE" route="vertical" depart="874" />
    <vehicle id="left_251" type="SUMO_DEFAULT_TYPE" route="vertical" depart="875" />
    <vehicle id="left_252" type="SUMO_DEFAULT_TYPE" route="vertical" depart="879" />
    <vehicle id="right_253" type="SUMO_DEFAULT_TYPE" route="horizontal" depart="886" />
    <vehicle id="left_254" type="SUMO_DEFAULT_TYPE" route="vertical" depart="892" />
    <vehicle id="right_255" type="SUMO_DEFAULT_TYPE" route="horizontal" depart="906" />
    <vehicle id="right_256" type="SUMO_DEFAULT_TYPE" route="horizontal" depart="909" />
    <vehicle id="down_257" type="SUMO_DEFAULT_TYPE" route="always_right" depart="913" color="1,0,0"/>
    <vehicle id="left_258" type="SUMO_DEFAULT_TYPE" route="vertical" depart="924" />
    <vehicle id="left_259" type="SUMO_DEFAULT_TYPE" route="vertical" depart="925" />
    <vehicle id="right_260" type="SUMO_DEFAULT_TYPE" route="horizontal" depart="928" />
    <vehicle id="down_261" type="SUMO_DEFAULT_TYPE" route="always_right" depart="932" color="1,0,0"/>
    <vehicle id="down_262" type="SUMO_DEFAULT_TYPE" route="always_right" depart="934" color="1,0,0"/>
    <vehicle id="right_263" type="SUMO_DEFAULT_TYPE" route="horizontal" depart="935" />
    <vehicle id="right_264" type="SUMO_DEFAULT_TYPE" route="horizontal" depart="939" />
    <vehicle id="left_265" type="SUMO_DEFAULT_TYPE" route="vertical" depart="939" />
    <vehicle id="down_266" type="SUMO_DEFAULT_TYPE" route="always_left" depart="941" color="0,0,1"/>
    <vehicle id="left_267" type="SUMO_DEFAULT_TYPE" route="vertical" depart="950" />
    <vehicle id="left_268" type="SUMO_DEFAULT_TYPE" route="vertical" depart="956" />
    <vehicle id="right_269" type="SUMO_DEFAULT_TYPE" route="horizontal" depart="961" />
    <vehicle id="left_270" type="SUMO_DEFAULT_TYPE" route="vertical" depart="966" />
    <vehicle id="down_271" type="SUMO_DEFAULT_TYPE" route="always_right" depart="966" color="1,0,0"/>
    <vehicle id="left_272" type="SUMO_DEFAULT_TYPE" route="vertical" depart="967" />
    <vehicle id="right_273" type="SUMO_DEFAULT_TYPE" route="horizontal" depart="976" />
    <vehicle id="down_274" type="SUMO_DEFAULT_TYPE" route="always_left" depart="976" color="0,0,1"/>
    <vehicle id="right_275" type="SUMO_DEFAULT_TYPE" route="horizontal" depart="978" />
    <vehicle id="left_276" type="SUMO_DEFAULT_TYPE" route="vertical" depart="988" />
    <vehicle id="down_277" type="SUMO_DEFAULT_TYPE" route="always_left" depart="988" color="0,0,1"/>
    <vehicle id="down_278" type="SUMO_DEFAULT_TYPE" route="always_left" depart="989" color="0,0,1"/>
    <vehicle id="right_279" type="SUMO_DEFAULT_TYPE" route="horizontal" depart="990" />
    <vehicle id="down_280" type="SUMO_DEFAULT_TYPE" route="always_left" depart="991" color="0,0,1"/>
    <vehicle id="left_281" type="SUMO_DEFAULT_TYPE" route="vertical" depart="999" />
    <vehicle id="down_282" type="SUMO_DEFAULT_TYPE" route="always_left" depart="1002" color="0,0,1"/>
    <vehicle id="right_283" type="SUMO_DEFAULT_TYPE" route="horizontal" depart="1005" />
    <vehicle id="left_284" type="SUMO_DEFAULT_TYPE" route="vertical" depart="1008" />
    <vehicle id="down_285" type="SUMO_DEFAULT_TYPE" route="always_right" depart="1017" color="1,0,0"/>
    <vehicle id="right_286" type="SUMO_DEFAULT_TYPE" route="horizontal" depart="1018" />
    <vehicle id="right_287" type="SUMO_DEFAULT_TYPE" route="horizontal" depart="1019" />
    <vehicle id="down_288" type="SUMO_DEFAULT_TYPE" route="always_right" depart="1019" color="1,0,0"/>
    <vehicle id="down_289" type="SUMO_DEFAULT_TYPE" route="always_left" depart="1023" color="0,0,1"/>
    <vehicle id="down_290" type="SUMO_DEFAULT_TYPE" route="always_right" depart="1024" color="1,0,0"/>
    <vehicle id="left_291" type="SUMO_DEFAULT_TYPE" route="vertical" depart="1025" />
    <vehicle id="left_292" type="SUMO_DEFAULT_TYPE" route="vertical" depart="1031" />
    <vehicle id="down_293" type="SUMO_DEFAULT_TYPE" route="always_left" depart="1035" color="0,0,1"/>
    <vehicle id="right_294" type="SUMO_DEFAULT_TYPE" route="horizontal" depart="1036" />
    <vehicle id="right_295" type="SUMO_DEFAULT_TYPE" route="horizontal" depart="1038" />
    <vehicle id="down_296" type="SUMO_DEFAULT_TYPE" route="always_right" depart="1045" color="1,0,0"/>
    <vehicle id="right_297" type="SUMO_DEFAULT_TYPE" route="horizontal" depart="1049" />
    <vehicle id="right_298" type="SUMO_DEFAULT_TYPE" route="horizontal" depart="1052" />
    <vehicle id="left_299" type="SUMO_DEFAULT_TYPE" route="vertical" depart="1057" />
    <vehicle id="right_300" type="SUMO_DEFAULT_TYPE" route="horizontal" depart="1065" />
    <vehicle id="right_301" type="SUMO_DEFAULT_TYPE" route="horizontal" depart="1071" />
    <vehicle id="down_302" type="SUMO_DEFAULT_TYPE" route="always_right" depart="1074" color="1,0,0"/>
    <vehicle id="right_303" type="SUMO_DEFAULT_TYPE" route="horizontal" depart="1076" />
    <vehicle id="down_304" type="SUMO_DEFAULT_TYPE" route="always_left" depart="1077" color="0,0,1"/>
    <vehicle id="left_305" type="SUMO_DEFAULT_TYPE" route="vertical" depart="1078" />
    <vehicle id="right_306" type="SUMO_DEFAULT_TYPE" route="horizontal" depart="1081" />
    <vehicle id="down_307" type="SUMO_DEFAULT_TYPE" route="always_left" depart="1087" color="0,0,1"/>
    <vehicle id="down_308" type="SUMO_DEFAULT_TYPE" route="always_right" depart="1088" color="1,0,0"/>
    <vehicle id="down_309" type="SUMO_DEFAULT_TYPE" route="always_right" depart="1089" color="1,0,0"/>
    <vehicle id="down_310" type="SUMO_DEFAULT_TYPE" route="always_right" depart="1090" color="1,0,0"/>
    <vehicle id="down_311" type="SUMO_DEFAULT_TYPE" route="always_right" depart="1097" color="1,0,0"/>
    <vehicle id="right_312" type="SUMO_DEFAULT_TYPE" route="horizontal" depart="1098" />
    <vehicle id="left_313" type="SUMO_DEFAULT_TYPE" route="vertical" depart="1103" />
    <vehicle id="left_314" type="SUMO_DEFAULT_TYPE" route="vertical" depart="1106" />
    <vehicle id="down_315" type="SUMO_DEFAULT_TYPE" route="always_right" depart="1108" color="1,0,0"/>
    <vehicle id="down_316" type="SUMO_DEFAULT_TYPE" route="always_right" depart="1112" color="1,0,0"/>
    <vehicle id="right_317" type="SUMO_DEFAULT_TYPE" route="horizontal" depart="1113" />
    <vehicle id="left_318" type="SUMO_DEFAULT_TYPE" route="vertical" depart="1114" />
    <vehicle id="right_319" type="SUMO_DEFAULT_TYPE" route="horizontal" depart="1116" />
    <vehicle id="right_320" type="SUMO_DEFAULT_TYPE" route="horizontal" depart="1123" />
    <vehicle id="left_321" type="SUMO_DEFAULT_TYPE" route="vertical" depart="1124" />